* NGSPICE file created from OTA_Telescopic_TOP_wp.ext - technology: ihp-sg13g2

.subckt OTA_Telescopic_TOP_wp VDD VSS VPout VPin VOUTP VP VN VOUTN VNin VNout CMFBin VREF CMFBout Vop Von
X0 a_n3162_51# VPin.t0 a_n1828_1772# VSS.t152 sg13_lv_nmos ad=0.209p pd=1.48u as=0.209p ps=1.48u w=1.1u l=0.15u
X1 Von.t94 a_n10106_3341# VDD.t192 VDD.t1 sg13_lv_pmos ad=0.2603p pd=1.75u as=0.2603p ps=1.75u w=1.37u l=0.35u
X2 Vop.t81 a_1220_1772# VDD.t522 VDD.t1 sg13_lv_pmos ad=0.2603p pd=1.75u as=0.2603p ps=1.75u w=1.37u l=0.35u
X3 VDD.t406 a_1220_1772# Vop.t118 VDD.t1 sg13_lv_pmos ad=0.4658p pd=3.42u as=0.2603p ps=1.75u w=1.37u l=0.35u
X4 a_n2373_n10895# a_n6543_n9623# a_n3721_n10895# VSS.t311 sg13_lv_nmos ad=1.14p pd=6.38u as=2.04p ps=12.68u w=6u l=6.4u
X5 a_1220_1772# a_n9221_n275# a_881_4136# VDD.t1 sg13_lv_pmos ad=0.7695p pd=4.43u as=0.7695p ps=4.43u w=4.05u l=0.5u
X6 VDD.t863 a_n6543_n10895# a_n5006_n3441# VDD.t0 sg13_lv_pmos ad=0.19p pd=1.38u as=0.19p ps=1.38u w=1u l=0.7u
X7 a_881_4136# a_n9221_n275# a_1220_1772# VDD.t1 sg13_lv_pmos ad=1.377p pd=8.78u as=0.7695p ps=4.43u w=4.05u l=0.5u
X8 VDD.t258 a_n10106_3341# Von.t79 VDD.t1 sg13_lv_pmos ad=0.2603p pd=1.75u as=0.2603p ps=1.75u w=1.37u l=0.35u
X9 a_n2002_n4396# a_n6543_n10895# VDD.t829 VDD.t0 sg13_lv_pmos ad=0.19p pd=1.38u as=0.19p ps=1.38u w=1u l=0.7u
X10 a_n2002_n4396# Vop.t158 CMFBout.t10 VDD.t0 sg13_lv_pmos ad=0.24415p pd=1.665u as=0.24415p ps=1.665u w=1.285u l=0.35u
X11 VSS.t10 a_n10179_n275# Vop.t13 VSS.t9 sg13_lv_nmos ad=0.912p pd=5.18u as=0.912p ps=5.18u w=4.8u l=1.06u
X12 a_n1828_1772# VPin.t0 a_n3162_51# VSS.t151 sg13_lv_nmos ad=0.209p pd=1.48u as=0.209p ps=1.48u w=1.1u l=0.15u
X13 Vop.t35 a_1220_1772# VDD.t590 VDD.t1 sg13_lv_pmos ad=0.2603p pd=1.75u as=0.2603p ps=1.75u w=1.37u l=0.35u
X14 a_n3381_1772# a_n9221_n275# a_n10106_3341# VDD.t1 sg13_lv_pmos ad=0.7695p pd=4.43u as=0.7695p ps=4.43u w=4.05u l=0.5u
X15 Vop.t140 a_1220_1772# VDD.t558 VDD.t1 sg13_lv_pmos ad=0.2603p pd=1.75u as=0.2603p ps=1.75u w=1.37u l=0.35u
X16 a_n10106_3341# a_n9221_n275# a_n3381_1772# VDD.t1 sg13_lv_pmos ad=0.7695p pd=4.43u as=1.377p ps=8.78u w=4.05u l=0.5u
X17 VDD.t956 a_n6543_n10895# a_n5006_n3441# VDD.t0 sg13_lv_pmos ad=0.19p pd=1.38u as=0.19p ps=1.38u w=1u l=0.7u
X18 a_n3721_n10895# a_n6543_n9623# a_n2373_n10895# VSS.t318 sg13_lv_nmos ad=2.04p pd=12.68u as=1.14p ps=6.38u w=6u l=6.4u
X19 Von.t153 a_n10106_3341# VDD.t175 VDD.t1 sg13_lv_pmos ad=0.2603p pd=1.75u as=0.4658p ps=3.42u w=1.37u l=0.35u
X20 VDD.t540 a_1220_1772# Vop.t136 VDD.t1 sg13_lv_pmos ad=0.2603p pd=1.75u as=0.2603p ps=1.75u w=1.37u l=0.35u
X21 a_n20570_n9414# VOUTN.t26 a_n14528_n9920# VSS.t257 sg13_lv_nmos ad=1.9p pd=10.38u as=3.4p ps=20.68u w=10u l=0.5u
X22 a_286_1773# VNin.t0 a_n3162_51# VSS.t142 sg13_lv_nmos ad=0.209p pd=1.48u as=0.374p ps=2.88u w=1.1u l=0.15u
X23 a_n3721_n10895# a_n6543_n9623# a_n2373_n10895# VSS.t318 sg13_lv_nmos ad=2.04p pd=12.68u as=1.14p ps=6.38u w=6u l=6.4u
X24 Vop.t74 a_1220_1772# VDD.t467 VDD.t1 sg13_lv_pmos ad=0.2603p pd=1.75u as=0.4658p ps=3.42u w=1.37u l=0.35u
X25 VDD.t790 a_n6543_n10895# a_n2002_n4396# VDD.t0 sg13_lv_pmos ad=0.19p pd=1.38u as=0.19p ps=1.38u w=1u l=0.7u
X26 VDD.t667 a_n6543_n10895# a_n6543_n10895# VDD.t0 sg13_lv_pmos ad=0.19p pd=1.38u as=0.19p ps=1.38u w=1u l=0.7u
X27 a_n14528_n9920# Von.t157 a_n14155_n5285# VSS.t304 sg13_lv_nmos ad=1.9p pd=10.38u as=1.9p ps=10.38u w=10u l=0.5u
X28 VDD.t454 a_1220_1772# Vop.t89 VDD.t1 sg13_lv_pmos ad=0.2603p pd=1.75u as=0.2603p ps=1.75u w=1.37u l=0.35u
X29 Von.t11 a_n10179_n275# VSS.t43 VSS.t19 sg13_lv_nmos ad=0.912p pd=5.18u as=0.912p ps=5.18u w=4.8u l=1.06u
X30 VDD.t927 a_n6543_n10895# a_n2002_n4396# VDD.t0 sg13_lv_pmos ad=0.19p pd=1.38u as=0.19p ps=1.38u w=1u l=0.7u
X31 VDD.t962 a_n6543_n10895# a_n5006_n3441# VDD.t0 sg13_lv_pmos ad=0.19p pd=1.38u as=0.19p ps=1.38u w=1u l=0.7u
X32 a_n2002_n4396# a_n6543_n10895# VDD.t881 VDD.t0 sg13_lv_pmos ad=0.19p pd=1.38u as=0.19p ps=1.38u w=1u l=0.7u
X33 Vop.t142 a_1220_1772# VDD.t434 VDD.t1 sg13_lv_pmos ad=0.2603p pd=1.75u as=0.2603p ps=1.75u w=1.37u l=0.35u
X34 VDD.t827 a_n6543_n10895# a_n2002_n4396# VDD.t0 sg13_lv_pmos ad=0.19p pd=1.38u as=0.19p ps=1.38u w=1u l=0.7u
X35 Von.t54 a_n10106_3341# VDD.t132 VDD.t1 sg13_lv_pmos ad=0.2603p pd=1.75u as=0.2603p ps=1.75u w=1.37u l=0.35u
X36 VDD.t398 a_1220_1772# Vop.t124 VDD.t1 sg13_lv_pmos ad=0.2603p pd=1.75u as=0.2603p ps=1.75u w=1.37u l=0.35u
X37 VDD.t510 a_1220_1772# Vop.t71 VDD.t1 sg13_lv_pmos ad=0.2603p pd=1.75u as=0.2603p ps=1.75u w=1.37u l=0.35u
X38 VDD.t476 a_1220_1772# Vop.t58 VDD.t1 sg13_lv_pmos ad=0.4658p pd=3.42u as=0.2603p ps=1.75u w=1.37u l=0.35u
X39 a_n2002_n4396# a_n6543_n10895# VDD.t978 VDD.t0 sg13_lv_pmos ad=0.19p pd=1.38u as=0.19p ps=1.38u w=1u l=0.7u
X40 VDD.t59 a_n10013_2465# a_881_4136# VDD.t1 sg13_lv_pmos ad=1.33p pd=7.38u as=1.33p ps=7.38u w=7u l=0.7u
X41 CMFBout.t25 Von.t158 a_n5006_n3441# VDD.t0 sg13_lv_pmos ad=0.24415p pd=1.665u as=0.24415p ps=1.665u w=1.285u l=0.35u
X42 CMFBout.t14 Vop.t158 a_n2002_n4396# VDD.t0 sg13_lv_pmos ad=0.24415p pd=1.665u as=0.24415p ps=1.665u w=1.285u l=0.35u
X43 VDD.t691 a_n6543_n10895# a_n6543_n10895# VDD.t0 sg13_lv_pmos ad=0.19p pd=1.38u as=0.19p ps=1.38u w=1u l=0.7u
X44 VDD.t302 a_n10106_3341# Von.t131 VDD.t1 sg13_lv_pmos ad=0.2603p pd=1.75u as=0.2603p ps=1.75u w=1.37u l=0.35u
X45 Vop.t9 a_n10179_n275# VSS.t126 VSS.t9 sg13_lv_nmos ad=0.912p pd=5.18u as=0.912p ps=5.18u w=4.8u l=1.06u
X46 VDD.t43 a_n10013_2465# a_881_4136# VDD.t1 sg13_lv_pmos ad=1.33p pd=7.38u as=1.33p ps=7.38u w=7u l=0.7u
X47 VOUTN.t5 a_n20570_n9414# VDD.t82 VSS.t137 sg13_lv_nmos ad=3.4p pd=20.68u as=3.4p ps=20.68u w=10u l=0.15u
X48 a_1220_1772# a_n9221_n275# a_881_4136# VDD.t1 sg13_lv_pmos ad=0.7695p pd=4.43u as=0.7695p ps=4.43u w=4.05u l=0.5u
X49 Von.t48 a_n10106_3341# VDD.t286 VDD.t1 sg13_lv_pmos ad=0.2603p pd=1.75u as=0.2603p ps=1.75u w=1.37u l=0.35u
X50 a_286_1773# VNin.t0 a_n3162_51# VSS.t142 sg13_lv_nmos ad=0.209p pd=1.48u as=0.374p ps=2.88u w=1.1u l=0.15u
X51 VDD.t741 a_n6543_n10895# a_n2002_n4396# VDD.t0 sg13_lv_pmos ad=0.19p pd=1.38u as=0.19p ps=1.38u w=1u l=0.7u
X52 a_n3381_1772# a_n9221_n275# a_n10106_3341# VDD.t1 sg13_lv_pmos ad=0.7695p pd=4.43u as=0.7695p ps=4.43u w=4.05u l=0.5u
X53 VSS.t309 a_n6543_n9623# a_n6543_n9623# VSS.t308 sg13_lv_nmos ad=1.14p pd=6.38u as=2.04p ps=12.68u w=6u l=6.4u
X54 VSS.t118 a_n10179_n275# Vop.t25 VSS.t63 sg13_lv_nmos ad=0.912p pd=5.18u as=0.912p ps=5.18u w=4.8u l=1.06u
X55 a_36_n4396# VREF.t0 a_n2002_n4396# VDD.t0 sg13_lv_pmos ad=0.24415p pd=1.665u as=0.24415p ps=1.665u w=1.285u l=0.35u
X56 a_n3162_51# CMFBin.t16 VSS.t207 VSS.t208 sg13_lv_nmos ad=0.6327p pd=3.71u as=0.6327p ps=3.71u w=3.33u l=0.2u
X57 a_286_1773# a_n8929_2739# a_1220_1772# VSS.t333 sg13_lv_nmos ad=0.646p pd=4.48u as=0.361p ps=2.28u w=1.9u l=0.16u
X58 VDD.t524 a_1220_1772# Vop.t81 VDD.t1 sg13_lv_pmos ad=0.2603p pd=1.75u as=0.2603p ps=1.75u w=1.37u l=0.35u
X59 VDD.t85 a_n20570_n9414# VOUTN.t3 VSS.t140 sg13_lv_nmos ad=3.4p pd=20.68u as=3.4p ps=20.68u w=10u l=0.15u
X60 VDD.t778 a_n6543_n10895# a_n2002_n4396# VDD.t0 sg13_lv_pmos ad=0.19p pd=1.38u as=0.19p ps=1.38u w=1u l=0.7u
X61 a_n1828_1772# VPin.t0 a_n3162_51# VSS.t153 sg13_lv_nmos ad=0.209p pd=1.48u as=0.209p ps=1.48u w=1.1u l=0.15u
X62 VDD.t908 a_n6543_n10895# a_n5006_n3441# VDD.t0 sg13_lv_pmos ad=0.19p pd=1.38u as=0.19p ps=1.38u w=1u l=0.7u
X63 VDD.t468 a_1220_1772# Vop.t74 VDD.t1 sg13_lv_pmos ad=0.2603p pd=1.75u as=0.2603p ps=1.75u w=1.37u l=0.35u
X64 Von.t79 a_n10106_3341# VDD.t256 VDD.t1 sg13_lv_pmos ad=0.2603p pd=1.75u as=0.2603p ps=1.75u w=1.37u l=0.35u
X65 a_n14528_n9920# VOUTN.t26 a_n20570_n9414# VSS.t258 sg13_lv_nmos ad=1.9p pd=10.38u as=1.9p ps=10.38u w=10u l=0.5u
X66 Von.t6 a_n10179_n275# VSS.t50 VSS.t13 sg13_lv_nmos ad=0.912p pd=5.18u as=0.912p ps=5.18u w=4.8u l=1.06u
X67 VSS.t32 a_n10179_n275# Von.t25 VSS.t17 sg13_lv_nmos ad=0.912p pd=5.18u as=0.912p ps=5.18u w=4.8u l=1.06u
X68 a_n5006_n3441# a_n6543_n10895# VDD.t728 VDD.t0 sg13_lv_pmos ad=0.19p pd=1.38u as=0.34p ps=2.68u w=1u l=0.7u
X69 VDD.t280 a_n10106_3341# Von.t46 VDD.t1 sg13_lv_pmos ad=0.2603p pd=1.75u as=0.2603p ps=1.75u w=1.37u l=0.35u
X70 a_n3162_51# CMFBin.t11 VSS.t222 VSS.t223 sg13_lv_nmos ad=0.6327p pd=3.71u as=0.6327p ps=3.71u w=3.33u l=0.2u
X71 VDD.t252 a_n10106_3341# Von.t99 VDD.t1 sg13_lv_pmos ad=0.2603p pd=1.75u as=0.2603p ps=1.75u w=1.37u l=0.35u
X72 Vop.t154 a_1220_1772# VDD.t378 VDD.t1 sg13_lv_pmos ad=0.2603p pd=1.75u as=0.2603p ps=1.75u w=1.37u l=0.35u
X73 a_1220_1772# a_n9221_n275# a_881_4136# VDD.t1 sg13_lv_pmos ad=0.7695p pd=4.43u as=1.377p ps=8.78u w=4.05u l=0.5u
X74 Von.t82 a_n10106_3341# VDD.t212 VDD.t1 sg13_lv_pmos ad=0.2603p pd=1.75u as=0.2603p ps=1.75u w=1.37u l=0.35u
X75 a_n20570_n9414# VOUTN.t26 a_n14528_n9920# VSS.t263 sg13_lv_nmos ad=1.9p pd=10.38u as=1.9p ps=10.38u w=10u l=0.5u
X76 a_n3162_51# VPin.t0 a_n1828_1772# VSS.t154 sg13_lv_nmos ad=0.374p pd=2.88u as=0.209p ps=1.48u w=1.1u l=0.15u
X77 VDD.t164 a_n10106_3341# Von.t101 VDD.t1 sg13_lv_pmos ad=0.4658p pd=3.42u as=0.2603p ps=1.75u w=1.37u l=0.35u
X78 VDD.t598 a_13228_n9920# VOUTP.t1 VSS.t168 sg13_lv_nmos ad=3.4p pd=20.68u as=3.4p ps=20.68u w=10u l=0.15u
X79 a_n3381_1772# a_n9221_n275# a_n10106_3341# VDD.t1 sg13_lv_pmos ad=1.377p pd=8.78u as=0.7695p ps=4.43u w=4.05u l=0.5u
X80 VDD.t914 a_n6543_n10895# a_n5006_n3441# VDD.t0 sg13_lv_pmos ad=0.19p pd=1.38u as=0.19p ps=1.38u w=1u l=0.7u
X81 VSS.t58 a_n10179_n275# Von.t4 VSS.t23 sg13_lv_nmos ad=0.912p pd=5.18u as=0.912p ps=5.18u w=4.8u l=1.06u
X82 VDD.t815 a_n6543_n10895# a_n5006_n3441# VDD.t0 sg13_lv_pmos ad=0.19p pd=1.38u as=0.19p ps=1.38u w=1u l=0.7u
X83 a_n3381_1772# a_n10013_2465# VDD.t20 VDD.t1 sg13_lv_pmos ad=1.33p pd=7.38u as=2.38p ps=14.68u w=7u l=0.7u
X84 a_11652_n9920# Vop.t157 a_11820_n9920# VSS.t158 sg13_lv_nmos ad=1.9p pd=10.38u as=1.9p ps=10.38u w=10u l=0.5u
X85 a_36_n4396# a_36_n4396# VSS.t348 VSS.t349 sg13_lv_nmos ad=1.1322p pd=7.34u as=0.6327p ps=3.71u w=3.33u l=0.2u
X86 a_n6543_n10895# a_n6543_n10895# VDD.t661 VDD.t0 sg13_lv_pmos ad=0.19p pd=1.38u as=0.19p ps=1.38u w=1u l=0.7u
X87 CMFBout.t3 Vop.t158 a_n2002_n4396# VDD.t0 sg13_lv_pmos ad=0.24415p pd=1.665u as=0.24415p ps=1.665u w=1.285u l=0.35u
X88 a_n6543_n10895# a_n6543_n10895# VDD.t675 VDD.t0 sg13_lv_pmos ad=0.19p pd=1.38u as=0.19p ps=1.38u w=1u l=0.7u
X89 a_n2002_n4396# a_n6543_n10895# VDD.t931 VDD.t0 sg13_lv_pmos ad=0.19p pd=1.38u as=0.19p ps=1.38u w=1u l=0.7u
X90 VDD.t721 a_n6543_n10895# a_n5006_n3441# VDD.t0 sg13_lv_pmos ad=0.19p pd=1.38u as=0.19p ps=1.38u w=1u l=0.7u
X91 Vop.t150 a_1220_1772# VDD.t578 VDD.t1 sg13_lv_pmos ad=0.2603p pd=1.75u as=0.2603p ps=1.75u w=1.37u l=0.35u
X92 CMFBout.t0 Von.t158 a_n5006_n3441# VDD.t0 sg13_lv_pmos ad=0.24415p pd=1.665u as=0.24415p ps=1.665u w=1.285u l=0.35u
X93 VDD.t286 a_n10106_3341# Von.t132 VDD.t1 sg13_lv_pmos ad=0.2603p pd=1.75u as=0.2603p ps=1.75u w=1.37u l=0.35u
X94 VDD.t616 a_13228_n9920# VOUTP.t18 VSS.t170 sg13_lv_nmos ad=3.4p pd=20.68u as=3.4p ps=20.68u w=10u l=0.15u
X95 Vop.t80 a_1220_1772# VDD.t487 VDD.t1 sg13_lv_pmos ad=0.2603p pd=1.75u as=0.4658p ps=3.42u w=1.37u l=0.35u
X96 VDD.t821 a_n6543_n10895# a_n5006_n3441# VDD.t0 sg13_lv_pmos ad=0.19p pd=1.38u as=0.19p ps=1.38u w=1u l=0.7u
X97 IB.t0 a_n3721_n10895# VDD.t630 VDD.t622 sg13_lv_pmos ad=1.14p pd=6.38u as=1.14p ps=6.38u w=6u l=2.5u
X98 VDD.t69 a_n10013_2465# a_881_4136# VDD.t1 sg13_lv_pmos ad=2.38p pd=14.68u as=1.33p ps=7.38u w=7u l=0.7u
X99 VDD.t851 a_n6543_n10895# a_n5006_n3441# VDD.t0 sg13_lv_pmos ad=0.19p pd=1.38u as=0.19p ps=1.38u w=1u l=0.7u
X100 VDD.t322 a_n10106_3341# Von.t129 VDD.t1 sg13_lv_pmos ad=0.2603p pd=1.75u as=0.2603p ps=1.75u w=1.37u l=0.35u
X101 a_n2002_n4396# a_n6543_n10895# VDD.t840 VDD.t0 sg13_lv_pmos ad=0.19p pd=1.38u as=0.19p ps=1.38u w=1u l=0.7u
X102 VDD.t727 a_n6543_n10895# a_n5006_n3441# VDD.t0 sg13_lv_pmos ad=0.19p pd=1.38u as=0.19p ps=1.38u w=1u l=0.7u
X103 a_n5006_n3441# VREF.t0 a_36_n4396# VDD.t0 sg13_lv_pmos ad=0.24415p pd=1.665u as=0.4369p ps=3.25u w=1.285u l=0.35u
X104 VDD.t697 a_n6543_n10895# a_n6543_n10895# VDD.t0 sg13_lv_pmos ad=0.19p pd=1.38u as=0.19p ps=1.38u w=1u l=0.7u
X105 VDD.t496 a_1220_1772# Vop.t53 VDD.t1 sg13_lv_pmos ad=0.4658p pd=3.42u as=0.2603p ps=1.75u w=1.37u l=0.35u
X106 VDD.t256 a_n10106_3341# Von.t78 VDD.t1 sg13_lv_pmos ad=0.2603p pd=1.75u as=0.2603p ps=1.75u w=1.37u l=0.35u
X107 Von.t151 a_n10106_3341# VDD.t170 VDD.t1 sg13_lv_pmos ad=0.2603p pd=1.75u as=0.2603p ps=1.75u w=1.37u l=0.35u
X108 a_13228_n9920# a_11820_n9920# VDD.t635 VDD.t633 sg13_lv_pmos ad=1.9p pd=10.38u as=1.9p ps=10.38u w=10u l=1u
X109 a_n2002_n4396# a_n6543_n10895# VDD.t745 VDD.t0 sg13_lv_pmos ad=0.19p pd=1.38u as=0.19p ps=1.38u w=1u l=0.7u
X110 a_36_n4396# VREF.t0 a_n5006_n3441# VDD.t0 sg13_lv_pmos ad=0.24415p pd=1.665u as=0.24415p ps=1.665u w=1.285u l=0.35u
X111 a_n6543_n10895# a_n6543_n10895# VDD.t685 VDD.t0 sg13_lv_pmos ad=0.19p pd=1.38u as=0.19p ps=1.38u w=1u l=0.7u
X112 VDD.t25 a_n10013_2465# a_n3381_1772# VDD.t1 sg13_lv_pmos ad=2.38p pd=14.68u as=1.33p ps=7.38u w=7u l=0.7u
X113 Von.t118 a_n10106_3341# VDD.t108 VDD.t1 sg13_lv_pmos ad=0.2603p pd=1.75u as=0.2603p ps=1.75u w=1.37u l=0.35u
X114 a_n10013_2465# a_n10013_2465# VDD.t31 VDD.t1 sg13_lv_pmos ad=0.266p pd=1.78u as=0.476p ps=3.48u w=1.4u l=0.35u
X115 VSS.t89 a_n10179_n275# Vop.t1 VSS.t9 sg13_lv_nmos ad=0.912p pd=5.18u as=0.912p ps=5.18u w=4.8u l=1.06u
X116 a_n5006_n3441# Von.t158 CMFBout.t18 VDD.t0 sg13_lv_pmos ad=0.24415p pd=1.665u as=0.24415p ps=1.665u w=1.285u l=0.35u
X117 a_36_n4396# a_36_n4396# VSS.t342 VSS.t343 sg13_lv_nmos ad=0.6327p pd=3.71u as=0.6327p ps=3.71u w=3.33u l=0.2u
X118 Vop.t147 a_1220_1772# VDD.t560 VDD.t1 sg13_lv_pmos ad=0.2603p pd=1.75u as=0.2603p ps=1.75u w=1.37u l=0.35u
X119 VDD.t542 a_1220_1772# Vop.t137 VDD.t1 sg13_lv_pmos ad=0.2603p pd=1.75u as=0.2603p ps=1.75u w=1.37u l=0.35u
X120 a_n14528_n9920# a_n13845_n10915# VSS.t268 VSS.t267 sg13_lv_nmos ad=0.57p pd=3.38u as=0.57p ps=3.38u w=3u l=1u
X121 Von.t111 a_n10106_3341# VDD.t145 VDD.t1 sg13_lv_pmos ad=0.2603p pd=1.75u as=0.4658p ps=3.42u w=1.37u l=0.35u
X122 Vop.t131 a_1220_1772# VDD.t437 VDD.t1 sg13_lv_pmos ad=0.2603p pd=1.75u as=0.4658p ps=3.42u w=1.37u l=0.35u
X123 Von.t46 a_n10106_3341# VDD.t278 VDD.t1 sg13_lv_pmos ad=0.2603p pd=1.75u as=0.2603p ps=1.75u w=1.37u l=0.35u
X124 a_n5006_n3441# a_n6543_n10895# VDD.t952 VDD.t0 sg13_lv_pmos ad=0.19p pd=1.38u as=0.19p ps=1.38u w=1u l=0.7u
X125 a_n3162_51# VPin.t0 a_n1828_1772# VSS.t154 sg13_lv_nmos ad=0.374p pd=2.88u as=0.209p ps=1.48u w=1.1u l=0.15u
X126 Vop.t118 a_1220_1772# VDD.t404 VDD.t1 sg13_lv_pmos ad=0.2603p pd=1.75u as=0.2603p ps=1.75u w=1.37u l=0.35u
X127 a_n2002_n4396# VREF.t0 a_36_n4396# VDD.t0 sg13_lv_pmos ad=0.24415p pd=1.665u as=0.24415p ps=1.665u w=1.285u l=0.35u
X128 VDD.t512 a_1220_1772# Vop.t55 VDD.t1 sg13_lv_pmos ad=0.2603p pd=1.75u as=0.2603p ps=1.75u w=1.37u l=0.35u
X129 VDD.t446 a_1220_1772# Vop.t101 VDD.t1 sg13_lv_pmos ad=0.4658p pd=3.42u as=0.2603p ps=1.75u w=1.37u l=0.35u
X130 Vop.t51 a_1220_1772# VDD.t360 VDD.t1 sg13_lv_pmos ad=0.2603p pd=1.75u as=0.2603p ps=1.75u w=1.37u l=0.35u
X131 VDD.t488 a_1220_1772# Vop.t80 VDD.t1 sg13_lv_pmos ad=0.2603p pd=1.75u as=0.2603p ps=1.75u w=1.37u l=0.35u
X132 a_n2002_n4396# VREF.t0 a_36_n4396# VDD.t0 sg13_lv_pmos ad=0.24415p pd=1.665u as=0.24415p ps=1.665u w=1.285u l=0.35u
X133 a_n5006_n3441# a_n6543_n10895# VDD.t809 VDD.t0 sg13_lv_pmos ad=0.19p pd=1.38u as=0.19p ps=1.38u w=1u l=0.7u
X134 a_n3162_51# CMFBin.t15 VSS.t210 VSS.t211 sg13_lv_nmos ad=0.6327p pd=3.71u as=0.6327p ps=3.71u w=3.33u l=0.2u
X135 VDD.t300 a_n10106_3341# Von.t133 VDD.t1 sg13_lv_pmos ad=0.2603p pd=1.75u as=0.2603p ps=1.75u w=1.37u l=0.35u
X136 Von.t33 a_n10106_3341# VDD.t120 VDD.t1 sg13_lv_pmos ad=0.2603p pd=1.75u as=0.2603p ps=1.75u w=1.37u l=0.35u
X137 VDD.t632 a_n3721_n10895# IB.t0 VDD.t622 sg13_lv_pmos ad=2.04p pd=12.68u as=1.14p ps=6.38u w=6u l=2.5u
X138 VSS.t186 CMFBin.t23 a_n3162_51# VSS.t185 sg13_lv_nmos ad=0.6327p pd=3.71u as=0.6327p ps=3.71u w=3.33u l=0.2u
X139 Von.t76 a_n10106_3341# VDD.t232 VDD.t1 sg13_lv_pmos ad=0.2603p pd=1.75u as=0.2603p ps=1.75u w=1.37u l=0.35u
X140 VDD.t49 a_n10013_2465# a_881_4136# VDD.t1 sg13_lv_pmos ad=1.33p pd=7.38u as=1.33p ps=7.38u w=7u l=0.7u
X141 VDD.t982 a_n6543_n10895# a_n2002_n4396# VDD.t0 sg13_lv_pmos ad=0.19p pd=1.38u as=0.19p ps=1.38u w=1u l=0.7u
X142 VSS.t231 CMFBin.t8 a_n3162_51# VSS.t230 sg13_lv_nmos ad=0.6327p pd=3.71u as=0.6327p ps=3.71u w=3.33u l=0.2u
X143 a_n6543_n10895# a_n6543_n10895# VDD.t693 VDD.t0 sg13_lv_pmos ad=0.19p pd=1.38u as=0.19p ps=1.38u w=1u l=0.7u
X144 VDD.t968 a_n6543_n10895# a_n2002_n4396# VDD.t0 sg13_lv_pmos ad=0.19p pd=1.38u as=0.19p ps=1.38u w=1u l=0.7u
X145 VDD.t184 a_n10106_3341# Von.t90 VDD.t1 sg13_lv_pmos ad=0.4658p pd=3.42u as=0.2603p ps=1.75u w=1.37u l=0.35u
X146 Von.t103 a_n10106_3341# VDD.t215 VDD.t1 sg13_lv_pmos ad=0.2603p pd=1.75u as=0.4658p ps=3.42u w=1.37u l=0.35u
X147 Vop.t2 a_n10179_n275# VSS.t10 VSS.t9 sg13_lv_nmos ad=0.912p pd=5.18u as=0.912p ps=5.18u w=4.8u l=1.06u
X148 a_n3721_n10895# a_n6543_n9623# a_n2373_n10895# VSS.t312 sg13_lv_nmos ad=1.14p pd=6.38u as=1.14p ps=6.38u w=6u l=6.4u
X149 VDD.t819 a_n6543_n10895# a_n5006_n3441# VDD.t0 sg13_lv_pmos ad=0.19p pd=1.38u as=0.19p ps=1.38u w=1u l=0.7u
X150 a_n3381_1772# a_n10013_2465# VDD.t17 VDD.t1 sg13_lv_pmos ad=1.33p pd=7.38u as=1.33p ps=7.38u w=7u l=0.7u
X151 VOUTP.t12 a_13228_n9920# VDD.t605 VSS.t167 sg13_lv_nmos ad=3.4p pd=20.68u as=3.4p ps=20.68u w=10u l=0.15u
X152 a_n5006_n3441# a_n6543_n10895# VDD.t859 VDD.t0 sg13_lv_pmos ad=0.19p pd=1.38u as=0.19p ps=1.38u w=1u l=0.7u
X153 Vop.t146 a_1220_1772# VDD.t542 VDD.t1 sg13_lv_pmos ad=0.2603p pd=1.75u as=0.2603p ps=1.75u w=1.37u l=0.35u
X154 a_n5006_n3441# VREF.t0 a_36_n4396# VDD.t0 sg13_lv_pmos ad=0.24415p pd=1.665u as=0.24415p ps=1.665u w=1.285u l=0.35u
X155 Vop.t58 a_1220_1772# VDD.t474 VDD.t1 sg13_lv_pmos ad=0.2603p pd=1.75u as=0.2603p ps=1.75u w=1.37u l=0.35u
X156 Von.t58 a_n10106_3341# VDD.t100 VDD.t1 sg13_lv_pmos ad=0.2603p pd=1.75u as=0.2603p ps=1.75u w=1.37u l=0.35u
X157 a_n20570_n9414# VOUTN.t26 a_n14528_n9920# VSS.t259 sg13_lv_nmos ad=1.9p pd=10.38u as=1.9p ps=10.38u w=10u l=0.5u
X158 Vop.t17 a_n10179_n275# VSS.t107 VSS.t9 sg13_lv_nmos ad=0.912p pd=5.18u as=0.912p ps=5.18u w=4.8u l=1.06u
X159 VDD.t438 a_1220_1772# Vop.t131 VDD.t1 sg13_lv_pmos ad=0.2603p pd=1.75u as=0.2603p ps=1.75u w=1.37u l=0.35u
X160 VSS.t43 a_n10179_n275# Von.t10 VSS.t17 sg13_lv_nmos ad=0.912p pd=5.18u as=0.912p ps=5.18u w=4.8u l=1.06u
X161 VDD.t278 a_n10106_3341# Von.t45 VDD.t1 sg13_lv_pmos ad=0.2603p pd=1.75u as=0.2603p ps=1.75u w=1.37u l=0.35u
X162 a_n5006_n3441# a_n6543_n10895# VDD.t763 VDD.t0 sg13_lv_pmos ad=0.19p pd=1.38u as=0.19p ps=1.38u w=1u l=0.7u
X163 VDD.t250 a_n10106_3341# Von.t39 VDD.t1 sg13_lv_pmos ad=0.2603p pd=1.75u as=0.2603p ps=1.75u w=1.37u l=0.35u
X164 a_n5006_n3441# a_n6543_n10895# VDD.t904 VDD.t0 sg13_lv_pmos ad=0.19p pd=1.38u as=0.19p ps=1.38u w=1u l=0.7u
X165 VDD.t342 a_n10106_3341# Von.t141 VDD.t1 sg13_lv_pmos ad=0.2603p pd=1.75u as=0.2603p ps=1.75u w=1.37u l=0.35u
X166 a_n2002_n4396# a_n6543_n10895# VDD.t657 VDD.t0 sg13_lv_pmos ad=0.19p pd=1.38u as=0.19p ps=1.38u w=1u l=0.7u
X167 a_n6543_n10895# a_n6543_n10895# VDD.t663 VDD.t0 sg13_lv_pmos ad=0.19p pd=1.38u as=0.19p ps=1.38u w=1u l=0.7u
X168 Vop.t56 a_1220_1772# VDD.t512 VDD.t1 sg13_lv_pmos ad=0.2603p pd=1.75u as=0.2603p ps=1.75u w=1.37u l=0.35u
X169 a_11652_n9920# Vop.t157 a_11820_n9920# VSS.t164 sg13_lv_nmos ad=1.9p pd=10.38u as=1.9p ps=10.38u w=10u l=0.5u
X170 Von.t30 a_n10106_3341# VDD.t105 VDD.t1 sg13_lv_pmos ad=0.2603p pd=1.75u as=0.4658p ps=3.42u w=1.37u l=0.35u
X171 VDD.t624 a_n3721_n10895# a_n6543_n9623# VDD.t622 sg13_lv_pmos ad=1.14p pd=6.38u as=1.14p ps=6.38u w=6u l=2.5u
X172 VDD.t372 a_1220_1772# Vop.t109 VDD.t1 sg13_lv_pmos ad=0.2603p pd=1.75u as=0.2603p ps=1.75u w=1.37u l=0.35u
X173 VSS.t342 a_36_n4396# a_36_n4396# VSS.t341 sg13_lv_nmos ad=0.6327p pd=3.71u as=0.6327p ps=3.71u w=3.33u l=0.2u
X174 VDD.t21 a_n10013_2465# a_n3381_1772# VDD.t1 sg13_lv_pmos ad=1.33p pd=7.38u as=1.33p ps=7.38u w=7u l=0.7u
X175 Vop.t129 a_1220_1772# VDD.t580 VDD.t1 sg13_lv_pmos ad=0.2603p pd=1.75u as=0.2603p ps=1.75u w=1.37u l=0.35u
X176 VDD.t798 a_n6543_n10895# a_n2002_n4396# VDD.t0 sg13_lv_pmos ad=0.19p pd=1.38u as=0.19p ps=1.38u w=1u l=0.7u
X177 Vop.t43 a_1220_1772# VDD.t362 VDD.t1 sg13_lv_pmos ad=0.2603p pd=1.75u as=0.2603p ps=1.75u w=1.37u l=0.35u
X178 VDD.t530 a_1220_1772# Vop.t85 VDD.t1 sg13_lv_pmos ad=0.2603p pd=1.75u as=0.2603p ps=1.75u w=1.37u l=0.35u
X179 VSS.t50 a_n10179_n275# Von.t5 VSS.t11 sg13_lv_nmos ad=0.912p pd=5.18u as=1.632p ps=10.28u w=4.8u l=1.06u
X180 VDD.t935 a_n6543_n10895# a_n2002_n4396# VDD.t0 sg13_lv_pmos ad=0.19p pd=1.38u as=0.19p ps=1.38u w=1u l=0.7u
X181 VDD.t920 a_n6543_n10895# a_n2002_n4396# VDD.t0 sg13_lv_pmos ad=0.19p pd=1.38u as=0.19p ps=1.38u w=1u l=0.7u
X182 Vop.t141 a_1220_1772# VDD.t457 VDD.t1 sg13_lv_pmos ad=0.2603p pd=1.75u as=0.4658p ps=3.42u w=1.37u l=0.35u
X183 a_n5006_n3441# a_n6543_n10895# VDD.t717 VDD.t0 sg13_lv_pmos ad=0.19p pd=1.38u as=0.19p ps=1.38u w=1u l=0.7u
X184 a_n6543_n10895# a_n6543_n10895# VDD.t679 VDD.t0 sg13_lv_pmos ad=0.19p pd=1.38u as=0.19p ps=1.38u w=1u l=0.7u
X185 Von.t133 a_n10106_3341# VDD.t298 VDD.t1 sg13_lv_pmos ad=0.2603p pd=1.75u as=0.2603p ps=1.75u w=1.37u l=0.35u
X186 VDD.t320 a_n10106_3341# Von.t64 VDD.t1 sg13_lv_pmos ad=0.2603p pd=1.75u as=0.2603p ps=1.75u w=1.37u l=0.35u
X187 a_881_4136# a_n10013_2465# VDD.t67 VDD.t1 sg13_lv_pmos ad=1.33p pd=7.38u as=1.33p ps=7.38u w=7u l=0.7u
X188 a_n2002_n4396# a_n6543_n10895# VDD.t972 VDD.t0 sg13_lv_pmos ad=0.19p pd=1.38u as=0.19p ps=1.38u w=1u l=0.7u
X189 Von.t25 a_n10179_n275# VSS.t30 VSS.t16 sg13_lv_nmos ad=0.912p pd=5.18u as=0.912p ps=5.18u w=4.8u l=1.06u
X190 VDD.t466 a_1220_1772# Vop.t90 VDD.t1 sg13_lv_pmos ad=0.4658p pd=3.42u as=0.2603p ps=1.75u w=1.37u l=0.35u
X191 VDD.t352 a_1220_1772# Vop.t153 VDD.t1 sg13_lv_pmos ad=0.2603p pd=1.75u as=0.2603p ps=1.75u w=1.37u l=0.35u
X192 Von.t80 a_n10106_3341# VDD.t140 VDD.t1 sg13_lv_pmos ad=0.2603p pd=1.75u as=0.2603p ps=1.75u w=1.37u l=0.35u
X193 VDD.t86 a_n20570_n9414# VOUTN.t22 VSS.t141 sg13_lv_nmos ad=3.4p pd=20.68u as=3.4p ps=20.68u w=10u l=0.15u
X194 a_n5006_n3441# a_n6543_n10895# VDD.t940 VDD.t0 sg13_lv_pmos ad=0.19p pd=1.38u as=0.19p ps=1.38u w=1u l=0.7u
X195 a_n3162_51# CMFBin.t12 VSS.t219 VSS.t220 sg13_lv_nmos ad=0.6327p pd=3.71u as=0.6327p ps=3.71u w=3.33u l=0.2u
X196 VDD.t544 a_1220_1772# Vop.t146 VDD.t1 sg13_lv_pmos ad=0.2603p pd=1.75u as=0.2603p ps=1.75u w=1.37u l=0.35u
X197 VDD.t749 a_n6543_n10895# a_n2002_n4396# VDD.t0 sg13_lv_pmos ad=0.19p pd=1.38u as=0.19p ps=1.38u w=1u l=0.7u
X198 VDD.t735 a_n6543_n10895# a_n2002_n4396# VDD.t0 sg13_lv_pmos ad=0.19p pd=1.38u as=0.19p ps=1.38u w=1u l=0.7u
X199 Von.t4 a_n10179_n275# VSS.t56 VSS.t22 sg13_lv_nmos ad=0.912p pd=5.18u as=0.912p ps=5.18u w=4.8u l=1.06u
X200 a_n5006_n3441# Von.t158 CMFBout.t28 VDD.t0 sg13_lv_pmos ad=0.24415p pd=1.665u as=0.24415p ps=1.665u w=1.285u l=0.35u
X201 VDD.t386 a_1220_1772# Vop.t108 VDD.t1 sg13_lv_pmos ad=0.4658p pd=3.42u as=0.2603p ps=1.75u w=1.37u l=0.35u
X202 VDD.t650 a_n14155_n5285# a_n14155_n5285# VDD.t642 sg13_lv_pmos ad=3.4p pd=20.68u as=1.9p ps=10.38u w=10u l=1u
X203 a_881_4136# a_n9221_n275# a_1220_1772# VDD.t1 sg13_lv_pmos ad=0.7695p pd=4.43u as=0.7695p ps=4.43u w=4.05u l=0.5u
X204 Von.t41 a_n10106_3341# VDD.t235 VDD.t1 sg13_lv_pmos ad=0.2603p pd=1.75u as=0.4658p ps=3.42u w=1.37u l=0.35u
X205 Von.t45 a_n10106_3341# VDD.t276 VDD.t1 sg13_lv_pmos ad=0.2603p pd=1.75u as=0.2603p ps=1.75u w=1.37u l=0.35u
X206 a_n2002_n4396# Vop.t158 CMFBout.t14 VDD.t0 sg13_lv_pmos ad=0.24415p pd=1.665u as=0.24415p ps=1.665u w=1.285u l=0.35u
X207 VSS.t189 CMFBin.t22 a_n3162_51# VSS.t188 sg13_lv_nmos ad=0.6327p pd=3.71u as=0.6327p ps=3.71u w=3.33u l=0.2u
X208 Von.t39 a_n10106_3341# VDD.t248 VDD.t1 sg13_lv_pmos ad=0.2603p pd=1.75u as=0.2603p ps=1.75u w=1.37u l=0.35u
X209 a_n10106_3341# a_n9221_n275# a_n3381_1772# VDD.t1 sg13_lv_pmos ad=0.7695p pd=4.43u as=0.7695p ps=4.43u w=4.05u l=0.5u
X210 Vop.t120 a_1220_1772# VDD.t418 VDD.t1 sg13_lv_pmos ad=0.2603p pd=1.75u as=0.2603p ps=1.75u w=1.37u l=0.35u
X211 VDD.t514 a_1220_1772# Vop.t56 VDD.t1 sg13_lv_pmos ad=0.2603p pd=1.75u as=0.2603p ps=1.75u w=1.37u l=0.35u
X212 a_36_n4396# VREF.t0 a_n5006_n3441# VDD.t0 sg13_lv_pmos ad=0.24415p pd=1.665u as=0.24415p ps=1.665u w=1.285u l=0.35u
X213 a_286_1773# a_n8929_2739# a_1220_1772# VSS.t329 sg13_lv_nmos ad=0.361p pd=2.28u as=0.361p ps=2.28u w=1.9u l=0.16u
X214 Vop.t53 a_1220_1772# VDD.t494 VDD.t1 sg13_lv_pmos ad=0.2603p pd=1.75u as=0.2603p ps=1.75u w=1.37u l=0.35u
X215 a_881_4136# a_n9221_n275# a_1220_1772# VDD.t1 sg13_lv_pmos ad=0.7695p pd=4.43u as=0.7695p ps=4.43u w=4.05u l=0.5u
X216 VDD.t458 a_1220_1772# Vop.t141 VDD.t1 sg13_lv_pmos ad=0.2603p pd=1.75u as=0.2603p ps=1.75u w=1.37u l=0.35u
X217 VDD.t298 a_n10106_3341# Von.t134 VDD.t1 sg13_lv_pmos ad=0.2603p pd=1.75u as=0.2603p ps=1.75u w=1.37u l=0.35u
X218 a_n5006_n3441# VREF.t0 a_36_n4396# VDD.t0 sg13_lv_pmos ad=0.24415p pd=1.665u as=0.24415p ps=1.665u w=1.285u l=0.35u
X219 a_1220_1772# a_n9221_n275# a_881_4136# VDD.t1 sg13_lv_pmos ad=0.7695p pd=4.43u as=0.7695p ps=4.43u w=4.05u l=0.5u
X220 a_n10106_3341# a_n9221_n275# a_n3381_1772# VDD.t1 sg13_lv_pmos ad=0.7695p pd=4.43u as=0.7695p ps=4.43u w=4.05u l=0.5u
X221 Von.t146 a_n10106_3341# VDD.t202 VDD.t1 sg13_lv_pmos ad=0.2603p pd=1.75u as=0.2603p ps=1.75u w=1.37u l=0.35u
X222 VDD.t970 a_n6543_n10895# a_n2002_n4396# VDD.t0 sg13_lv_pmos ad=0.19p pd=1.38u as=0.19p ps=1.38u w=1u l=0.7u
X223 VOUTP.t0 a_13228_n9920# VDD.t609 VSS.t171 sg13_lv_nmos ad=3.4p pd=20.68u as=3.4p ps=20.68u w=10u l=0.15u
X224 VDD.t807 a_n6543_n10895# a_n5006_n3441# VDD.t0 sg13_lv_pmos ad=0.19p pd=1.38u as=0.19p ps=1.38u w=1u l=0.7u
X225 VSS.t295 CMFBout.t30 CMFBout.t32 VSS.t294 sg13_lv_nmos ad=0.6327p pd=3.71u as=0.6327p ps=3.71u w=3.33u l=0.2u
X226 a_n3162_51# CMFBin.t5 VSS.t240 VSS.t241 sg13_lv_nmos ad=0.6327p pd=3.71u as=0.6327p ps=3.71u w=3.33u l=0.2u
X227 a_n3381_1772# a_n9221_n275# a_n10106_3341# VDD.t1 sg13_lv_pmos ad=0.7695p pd=4.43u as=0.7695p ps=4.43u w=4.05u l=0.5u
X228 VDD.t154 a_n10106_3341# Von.t110 VDD.t1 sg13_lv_pmos ad=0.4658p pd=3.42u as=0.2603p ps=1.75u w=1.37u l=0.35u
X229 Von.t83 a_n10106_3341# VDD.t185 VDD.t1 sg13_lv_pmos ad=0.2603p pd=1.75u as=0.4658p ps=3.42u w=1.37u l=0.35u
X230 Vop.t24 a_n10179_n275# VSS.t89 VSS.t9 sg13_lv_nmos ad=0.912p pd=5.18u as=0.912p ps=5.18u w=4.8u l=1.06u
X231 a_n2002_n4396# a_n6543_n10895# VDD.t925 VDD.t0 sg13_lv_pmos ad=0.19p pd=1.38u as=0.19p ps=1.38u w=1u l=0.7u
X232 Von.t64 a_n10106_3341# VDD.t318 VDD.t1 sg13_lv_pmos ad=0.2603p pd=1.75u as=0.2603p ps=1.75u w=1.37u l=0.35u
X233 a_n2002_n4396# a_n6543_n10895# VDD.t869 VDD.t0 sg13_lv_pmos ad=0.19p pd=1.38u as=0.19p ps=1.38u w=1u l=0.7u
X234 a_286_1773# a_n8929_2739# a_1220_1772# VSS.t333 sg13_lv_nmos ad=0.646p pd=4.48u as=0.361p ps=2.28u w=1.9u l=0.16u
X235 Vop.t101 a_1220_1772# VDD.t444 VDD.t1 sg13_lv_pmos ad=0.2603p pd=1.75u as=0.2603p ps=1.75u w=1.37u l=0.35u
X236 a_n5006_n3441# a_n6543_n10895# VDD.t892 VDD.t0 sg13_lv_pmos ad=0.19p pd=1.38u as=0.19p ps=1.38u w=1u l=0.7u
X237 VDD.t550 a_1220_1772# Vop.t69 VDD.t1 sg13_lv_pmos ad=0.2603p pd=1.75u as=0.2603p ps=1.75u w=1.37u l=0.35u
X238 a_n2002_n4396# a_n6543_n10895# VDD.t962 VDD.t0 sg13_lv_pmos ad=0.19p pd=1.38u as=0.19p ps=1.38u w=1u l=0.7u
X239 VSS.t268 a_n13845_n10915# a_n14528_n9920# VSS.t271 sg13_lv_nmos ad=0.57p pd=3.38u as=1.02p ps=6.68u w=3u l=1u
X240 VDD.t276 a_n10106_3341# Von.t44 VDD.t1 sg13_lv_pmos ad=0.2603p pd=1.75u as=0.2603p ps=1.75u w=1.37u l=0.35u
X241 a_36_n4396# VREF.t0 a_n2002_n4396# VDD.t0 sg13_lv_pmos ad=0.24415p pd=1.665u as=0.24415p ps=1.665u w=1.285u l=0.35u
X242 a_11652_n9920# VOUTP.t26 a_13228_n9920# VSS.t3 sg13_lv_nmos ad=1.9p pd=10.38u as=1.9p ps=10.38u w=10u l=0.5u
X243 VDD.t857 a_n6543_n10895# a_n5006_n3441# VDD.t0 sg13_lv_pmos ad=0.19p pd=1.38u as=0.19p ps=1.38u w=1u l=0.7u
X244 VSS.t216 CMFBin.t13 a_n3162_51# VSS.t215 sg13_lv_nmos ad=0.6327p pd=3.71u as=0.6327p ps=3.71u w=3.33u l=0.2u
X245 Vop.t64 a_1220_1772# VDD.t477 VDD.t1 sg13_lv_pmos ad=0.2603p pd=1.75u as=0.4658p ps=3.42u w=1.37u l=0.35u
X246 VDD.t248 a_n10106_3341# Von.t38 VDD.t1 sg13_lv_pmos ad=0.2603p pd=1.75u as=0.2603p ps=1.75u w=1.37u l=0.35u
X247 a_n14155_n5285# a_n14155_n5285# VDD.t646 VDD.t642 sg13_lv_pmos ad=1.9p pd=10.38u as=1.9p ps=10.38u w=10u l=1u
X248 a_881_4136# a_n10013_2465# VDD.t64 VDD.t1 sg13_lv_pmos ad=1.33p pd=7.38u as=2.38p ps=14.68u w=7u l=0.7u
X249 VDD.t340 a_n10106_3341# Von.t140 VDD.t1 sg13_lv_pmos ad=0.2603p pd=1.75u as=0.2603p ps=1.75u w=1.37u l=0.35u
X250 a_n1828_1772# a_n8929_2739# a_n10106_3341# VSS.t323 sg13_lv_nmos ad=0.361p pd=2.28u as=0.361p ps=2.28u w=1.9u l=0.16u
X251 VDD.t312 a_n10106_3341# Von.t121 VDD.t1 sg13_lv_pmos ad=0.2603p pd=1.75u as=0.2603p ps=1.75u w=1.37u l=0.35u
X252 VDD.t950 a_n6543_n10895# a_n5006_n3441# VDD.t0 sg13_lv_pmos ad=0.19p pd=1.38u as=0.19p ps=1.38u w=1u l=0.7u
X253 VDD.t761 a_n6543_n10895# a_n5006_n3441# VDD.t0 sg13_lv_pmos ad=0.19p pd=1.38u as=0.19p ps=1.38u w=1u l=0.7u
X254 Von.t35 a_n10106_3341# VDD.t272 VDD.t1 sg13_lv_pmos ad=0.2603p pd=1.75u as=0.2603p ps=1.75u w=1.37u l=0.35u
X255 a_n2002_n4396# a_n6543_n10895# VDD.t739 VDD.t0 sg13_lv_pmos ad=0.19p pd=1.38u as=0.19p ps=1.38u w=1u l=0.7u
X256 Vop.t27 a_n10179_n275# VSS.t115 VSS.t9 sg13_lv_nmos ad=1.632p pd=10.28u as=0.912p ps=5.18u w=4.8u l=1.06u
X257 a_881_4136# a_n9221_n275# a_1220_1772# VDD.t1 sg13_lv_pmos ad=0.7695p pd=4.43u as=0.7695p ps=4.43u w=4.05u l=0.5u
X258 VDD.t486 a_1220_1772# Vop.t151 VDD.t1 sg13_lv_pmos ad=0.4658p pd=3.42u as=0.2603p ps=1.75u w=1.37u l=0.35u
X259 VDD.t224 a_n10106_3341# Von.t107 VDD.t1 sg13_lv_pmos ad=0.4658p pd=3.42u as=0.2603p ps=1.75u w=1.37u l=0.35u
X260 Vop.t156 VPout.t1 VSS.t336 rppd l=19u w=0.6u
X261 a_n10106_3341# a_n9221_n275# a_n3381_1772# VDD.t1 sg13_lv_pmos ad=0.7695p pd=4.43u as=0.7695p ps=4.43u w=4.05u l=0.5u
X262 VDD.t130 a_n10106_3341# Von.t96 VDD.t1 sg13_lv_pmos ad=0.2603p pd=1.75u as=0.2603p ps=1.75u w=1.37u l=0.35u